# Created by the Bilbao Crystallographic Server
# http://www.cryst.ehu.es
# Date: 14/06/2023 22:02:44

# POSCAR

# --- Magnetic Structure Data ---

data_nvKAZu2w
_audit_creation_date               2023-06-14
_audit_creation_method             "Bilbao Crystallographic Server"
###non-st# _data_type "magnetic"
_space_group_magn.number_BNS  33.144
_space_group_magn.name_BNS  "?"
_space_group_magn.transform_BNS_Pp_abc  "a,b,c"
_cell_length_a                     5.29368
_cell_length_b                     6.53402
_cell_length_c                     5.11838
_cell_angle_alpha                  90.00000
_cell_angle_beta                   90.00000
_cell_angle_gamma                  90.00000

loop_
_space_group_symop_magn_operation.id
_space_group_symop_magn_operation.xyz
1   x,y,z,+1
2   -x,-y,z+1/2,+1
3   -x+1/2,y+1/2,z+1/2,+1
4   x+1/2,-y+1/2,z,+1


loop_
_atom_site_label
_atom_site_type_symbol
_atom_site_fract_x
_atom_site_fract_y
_atom_site_fract_z
_atom_site_occupancy
Mn1 Mn 0.57750 0.12439 0.00168 1.0000
N1 N 0.61303 0.15918 0.41810 1.0000
N2 N 0.54924 0.59157 0.34694 1.0000
Si1 Si 0.56806 0.62504 0.00629 1.0000

loop_
_atom_site_moment.label
_atom_site_moment.crystalaxis_x
_atom_site_moment.crystalaxis_y
_atom_site_moment.crystalaxis_z
Mn1 4.368 0.013 0.003
N1 0.000 0.000 0.000
N2 0.000 0.000 0.000
Si1 0.000 0.000 0.000
