
data_
_chemical_name_mineral ?MnSiN2?
_cell_length_a 5.266137(12)
_cell_length_b 6.518518(15)
_cell_length_c 5.072662(12)
_cell_angle_alpha 90
_cell_angle_beta 90
_cell_angle_gamma 90
_cell_volume 174.1313(7)
_symmetry_space_group_name_H-M Pna21
loop_
	_symmetry_equiv_pos_as_xyz
	 'x, y, z '
	 '-x+1/2, y+1/2, z+1/2 '
	 '-x, -y, z+1/2 '
	 'x+1/2, -y+1/2, z '
loop_
_atom_site_label
_atom_site_type_symbol
_atom_site_site_symmetry_multiplicity
_atom_site_fract_x
_atom_site_fract_y
_atom_site_fract_z
_atom_site_occupancy
_atom_site_B_iso_or_equiv
Mn1 Mn   4 0.07732(4) 0.62411(7) -0.00344(14) 1 0.395(5)
Si1 Si   4 0.06850(7) 0.12550(12) 0.0007(2) 1 0.161(7)
N1 N   4 0.1146 0.6606 0.4198 1 0.00(2)
N2 N   4 0.047 0.0889 0.3462 1 0.00(2)